---- qbsp / ericw-tools 2.0.0-alpha8-29-gb2f23f76 ----

--- Options Summary ---
    "nocolor" was set to "1" (from command line)

Input file: C:\Users\Fussy\OneDrive\Desktop\quake-leveldesign-starterkit-20240930-windows\cathedral-\broken-.map
Output file: C:\Users\Fussy\OneDrive\Desktop\quake-leveldesign-starterkit-20240930-windows\cathedral-\broken-.bsp

INFO: using built-in palette.
WARNING: broken-.map[line 6]: Unrecognised string escape - \e
WARNING: broken-.map[line 6]: Unrecognised string escape - \q
WARNING: broken-.map[line 6]: Unrecognised string escape - \k
WARNING: broken-.map[line 6]: Unrecognised string escape - \e
WARNING: broken-.map[line 6]: Unrecognised string escape - \q
WARNING: broken-.map[line 6]: Unrecognised string escape - \e
WARNING: broken-.map[line 6]: Unrecognised string escape - \q
WARNING: broken-.map[line 6]: Unrecognised string escape - \a
WARNING: broken-.map[line 6]: Unrecognised string escape - \e
WARNING: broken-.map[line 6]: Unrecognised string escape - \q
WARNING: broken-.map[line 6]: Unrecognised string escape - \a
WARNING: broken-.map[line 6]: Unrecognised string escape - \e
WARNING: broken-.map[line 6]: Unrecognised string escape - \q
WARNING: broken-.map[line 6]: Unrecognised string escape - \R
WARNING: broken-.map[line 6]: Unrecognised string escape - \e
WARNING: broken-.map[line 6]: Unrecognised string escape - \q
WARNING: broken-.map[line 6]: Unrecognised string escape - \h
WARNING: broken-.map[line 6]: Unrecognised string escape - \e
WARNING: broken-.map[line 6]: Unrecognised string escape - \q
WARNING: broken-.map[line 6]: Unrecognised string escape - \p
WARNING: broken-.map[line 6]: Unrecognised string escape - \p
WARNING: broken-.map[line 6]: Unrecognised string escape - \e
WARNING: broken-.map[line 6]: Unrecognised string escape - \q
WARNING: broken-.map[line 6]: Unrecognised string escape - \q
WARNING: broken-.map[line 6]: Unrecognised string escape - \a
WARNING: broken-.map[line 6]: Unrecognised string escape - \e
WARNING: broken-.map[line 6]: Unrecognised string escape - \q
WARNING: broken-.map[line 6]: Unrecognised string escape - \q
WARNING: broken-.map[line 6]: Unrecognised string escape - \h
WARNING: broken-.map[line 6]: Unrecognised string escape - \e
WARNING: broken-.map[line 6]: Unrecognised string escape - \q
WARNING: broken-.map[line 6]: Unrecognised string escape - \q
WARNING: broken-.map[line 6]: Unrecognised string escape - \a
WARNING: broken-.map[line 6]: Unrecognised string escape - \e
WARNING: broken-.map[line 6]: Unrecognised string escape - \q
WARNING: broken-.map[line 6]: Unrecognised string escape - \q
WARNING: broken-.map[line 6]: Unrecognised string escape - \a
WARNING: broken-.map[line 6]: Unrecognised string escape - \e
WARNING: broken-.map[line 6]: Unrecognised string escape - \q
WARNING: broken-.map[line 6]: Unrecognised string escape - \q
WARNING: broken-.map[line 6]: Unrecognised string escape - \R
WARNING: broken-.map[line 6]: Unrecognised string escape - \e
WARNING: broken-.map[line 6]: Unrecognised string escape - \q
WARNING: broken-.map[line 6]: Unrecognised string escape - \q
WARNING: broken-.map[line 6]: Unrecognised string escape - \a
WARNING: broken-.map[line 6]: Unrecognised string escape - \e
WARNING: broken-.map[line 6]: Unrecognised string escape - \q
WARNING: broken-.map[line 6]: Unrecognised string escape - \q
WARNING: broken-.map[line 6]: Unrecognised string escape - \a
WARNING: broken-.map[line 6]: Unrecognised string escape - \e
WARNING: broken-.map[line 6]: Unrecognised string escape - \q
WARNING: broken-.map[line 6]: Unrecognised string escape - \q
WARNING: broken-.map[line 6]: Unrecognised string escape - \e
WARNING: broken-.map[line 6]: Unrecognised string escape - \q
WARNING: broken-.map[line 6]: Unrecognised string escape - \q
WARNING: broken-.map[line 6]: Unrecognised string escape - \k
fs::addArchive: WARNING: archive '..\extras\quake\trenchbroom-quake-map-source\kdmtex.wad' not found
fs::addArchive: WARNING: archive '..\extras\quake\trenchbroom-quake-map-source\bdut_hr.wad' not found
fs::addArchive: WARNING: archive '..\extras\quake\trenchbroom-quake-map-source\axl3.wad' not found
fs::addArchive: WARNING: archive '..\extras\quake\trenchbroom-quake-map-source\artworks.wad' not found
fs::addArchive: WARNING: archive '..\extras\quake\trenchbroom-quake-map-source\RuneResized.wad' not found
fs::addArchive: WARNING: archive '..\extras\quake\trenchbroom-quake-map-source\hexen.wad' not found
      113 entities
       35 unique textures
      238 texinfos
    2,234 unique planes

INFO: world extents calculated to 8392 units
      623 brushes
    3,905 sides
      145 side bevels

            0 texture frames added
Processing hull 0...
    603 SOLID brushes
      6 WATER | Q2_UNUSED_8 brushes
      2 SKY brushes
    611 brushes total
    3,833 visible sides
INFO: calculating BSP for 611 brushes with 3833 sides
      611 brushes
    3,833 visible faces
    26,789 nodes
    18,882 expensive split nodes
     7,907 mid-split nodes
    26,790 leaves
        21 WATER | Q2_UNUSED_8 leafs
    12,035 EMPTY leafs
    14,265 SOLID leafs
       469 SKY leafs
    26,790 leafs total
    38 max tree height
    20 avg tree height
    631 tiny portals
    106,174 tree portals
    1,803 outside leaves
    0 detail filled leafs
      611 brushes
    2,833 visible faces
    1,000 non-visible faces
    8,276 nodes
    1,200 non-visible nodes
    8,276 expensive split nodes
    8,277 leaves
        6 WATER | Q2_UNUSED_8 leafs
    2,792 EMPTY leafs
    5,455 SOLID leafs
       24 SKY leafs
    8,277 leafs total
    46 max tree height
    24 avg tree height
    320 tiny portals
    36,834 tree portals
    283 outside leaves
    0 detail filled leafs
    320 tiny portals
    36,834 tree portals
WARNING: 2 sides not found (use -verbose to display)
    9,846 sides visible
     9,837 makefaces
     2,635 merged
    10,595 subdivided
    2,865 nodes pruned
    51 tiny portals
    2,539 player-occupiable leaves
    2,511 clusters of leaves
    8,317 vis portals
    2,873 SOLID leafs
        6 WATER | Q2_UNUSED_8 leafs
    2,509 EMPTY leafs
       24 SKY leafs
    5,412 leafs total
    46 max tree height
    23 avg tree height
         2 edges degenerated
    11,371 edges added by tjunctions
    17,517 faces optimized through MWT
    46,366 triangles computed from MWT
     2,721 faces created via optimization of MWT triangles
    43,918 edges
    20,518 faces
Processing hull 1...
Processing hull 2...
WARNING: worldspawn at 0 0 0 has long value for key wad (length 740 >= 127)
Writing broken-.bsp as Quake BSP bsp29
Wrote broken-.bsp

count   lump name    byte size 
     13 models              832
   3006 planes            60120
  23204 vertexes         278448
   5483 nodes            131592
    212 texinfos           8480
  20598 faces            411960
  14023 clipnodes        112184
   2624 leafs             73472
  22417 marksurfaces      44834
  44079 edges            176316
  88003 surfedges        352012
     35 textures         364616
        lightdata             0
        visdata               0
        entdata            8682

1.842s seconds elapsed


