---- qbsp / ericw-tools 2.0.0-alpha8-29-gb2f23f76 ----

--- Options Summary ---
    "nocolor" was set to "1" (from command line)

Input file: C:\Users\Fussy\OneDrive\Desktop\quake-leveldesign-starterkit-20240930-windows\cathedral-\cathedral-.map
Output file: C:\Users\Fussy\OneDrive\Desktop\quake-leveldesign-starterkit-20240930-windows\cathedral-\cathedral-.bsp

INFO: using built-in palette.
WARNING: cathedral-.map[line 6]: Unrecognised string escape - \.
WARNING: cathedral-.map[line 6]: Unrecognised string escape - \q
WARNING: cathedral-.map[line 6]: Unrecognised string escape - \w
WARNING: cathedral-.map[line 6]: Unrecognised string escape - \p
     67 entities
      9 unique textures
     64 texinfos
    906 unique planes

INFO: world extents calculated to 8088 units
    145 brushes
    962 sides
     69 side bevels

            0 texture frames added
Processing hull 0...
    137 SOLID brushes
    137 brushes total
    914 visible sides
INFO: calculating BSP for 137 brushes with 914 sides
    137 brushes
    914 visible faces
    2,620 nodes
    2,080 expensive split nodes
      540 mid-split nodes
    2,621 leaves
    1,113 EMPTY leafs
    1,508 SOLID leafs
    2,621 leafs total
    29 max tree height
    15 avg tree height
    22 tiny portals
    11,179 tree portals
WARNING: Reached occupant "info_player_deathmatch" at (-2000 240 552), no filling performed.
Leak file written to cathedral-.pts
            8 portals written to cathedral-.leak.prt
    22 tiny portals
    11,179 tree portals
    3,244 sides visible
    3,244 makefaces
      579 merged
    6,018 subdivided
    518 nodes pruned
    1,113 EMPTY leafs
      990 SOLID leafs
    2,103 leafs total
    29 max tree height
    15 avg tree height
     5,219 edges added by tjunctions
     8,530 faces optimized through MWT
    22,045 triangles computed from MWT
       889 faces created via optimization of MWT triangles
    20,693 edges
     9,572 faces
Processing hull 1...
WARNING: Reached occupant "info_player_deathmatch" at (-2000 240 552), no filling performed.
Processing hull 2...
WARNING: Reached occupant "info_player_deathmatch" at (-2000 240 552), no filling performed.
Writing cathedral-.bsp as Quake BSP bsp29
Wrote cathedral-.bsp

count   lump name    byte size 
      9 models              576
   1317 planes            26340
  11057 vertexes         132684
   2150 nodes             51600
     60 texinfos           2400
   9634 faces            192680
  14172 clipnodes        113376
   1170 leafs             32760
  10256 marksurfaces      20512
  20820 edges             83280
  41594 surfedges        166376
      9 textures         179920
        lightdata             0
        visdata               0
        entdata            4162

0.194s seconds elapsed


