---- qbsp / ericw-tools 2.0.0-alpha8-29-gb2f23f76 ----

--- Options Summary ---
    "nocolor" was set to "1" (from command line)

Input file: C:\Users\Fussy\OneDrive\Desktop\quake-leveldesign-starterkit-20240930-windows\cathedral-\cathedral-.map
Output file: C:\Users\Fussy\OneDrive\Desktop\quake-leveldesign-starterkit-20240930-windows\cathedral-\cathedral-.bsp

INFO: using built-in palette.
WARNING: cathedral-.map[line 6]: Unrecognised string escape - \e
WARNING: cathedral-.map[line 6]: Unrecognised string escape - \q
WARNING: cathedral-.map[line 6]: Unrecognised string escape - \p
WARNING: cathedral-.map[line 6]: Unrecognised string escape - \p
       66 entities
       28 unique textures
      197 texinfos
    1,656 unique planes

INFO: world extents calculated to 18120 units
      437 brushes
    2,743 sides
      115 side bevels

            0 texture frames added
WARNING: unable to find texture __TB_empty
Processing hull 0...
    424 SOLID brushes
      5 SKY brushes
    429 brushes total
    2,695 visible sides
INFO: calculating BSP for 429 brushes with 2695 sides
      429 brushes
    2,689 visible faces
        6 non-visible faces
    24,239 nodes
         4 non-visible nodes
    13,769 expensive split nodes
    10,470 mid-split nodes
    24,240 leaves
     9,897 EMPTY leafs
     1,894 SKY leafs
    12,449 SOLID leafs
    24,240 leafs total
    33 max tree height
    20 avg tree height
    106 tiny portals
    91,709 tree portals
WARNING: Reached occupant "info_player_deathmatch" at (-1341.68 392.738 512.471), no filling performed.
Leak file written to cathedral-.pts
           16 portals written to cathedral-.leak.prt
    106 tiny portals
    91,709 tree portals
    23,859 sides visible
    23,859 makefaces
     3,633 merged
    10,540 subdivided
    4,254 nodes pruned
     9,897 EMPTY leafs
     1,894 SKY leafs
     8,195 SOLID leafs
    19,986 leafs total
    33 max tree height
    20 avg tree height
    14,033 edges added by tjunctions
    30,366 faces optimized through MWT
    74,619 triangles computed from MWT
     2,761 faces created via optimization of MWT triangles
    71,087 edges
    33,518 faces
Processing hull 1...
WARNING: Reached occupant "info_player_start" at (-235.533 814.355 825.882), no filling performed.
Processing hull 2...
WARNING: Reached occupant "info_player_start" at (-235.533 814.355 825.882), no filling performed.
LIMITS EXCEEDED ON dclipnode_t::children
NOTE: limits exceeded for Quake BSP - switching to Quake BSP2
Writing cathedral-.bsp as Quake BSP2 bsp2
Wrote cathedral-.bsp

count   lump name    byte size 
      9 models              576
   2182 planes            43640
  37348 vertexes         448176
  20033 nodes            881452
    177 texinfos           7080
  33580 faces            940240
  84713 clipnodes       1016556
  11848 leafs            521312
  35853 marksurfaces     143412
  71214 edges            569712
 142298 surfedges        569192
     28 textures         414636
        lightdata             0
        visdata               0
        entdata            4873

0.972s seconds elapsed


