---- qbsp / ericw-tools 2.0.0-alpha8-29-gb2f23f76 ----

--- Options Summary ---
    "nocolor" was set to "1" (from command line)

Input file: C:\Users\Fussy\OneDrive\Desktop\quake-leveldesign-starterkit-20240930-windows\cathedral-\cathedral-.map
Output file: C:\Users\Fussy\OneDrive\Desktop\quake-leveldesign-starterkit-20240930-windows\cathedral-\cathedral-.bsp

INFO: using built-in palette.
WARNING: cathedral-.map[line 6]: Unrecognised string escape - \e
WARNING: cathedral-.map[line 6]: Unrecognised string escape - \q
WARNING: cathedral-.map[line 6]: Unrecognised string escape - \p
WARNING: cathedral-.map[line 6]: Unrecognised string escape - \p
       65 entities
       28 unique textures
      197 texinfos
    1,650 unique planes

INFO: world extents calculated to 18120 units
      436 brushes
    2,737 sides
      115 side bevels

            0 texture frames added
WARNING: unable to find texture __TB_empty
Processing hull 0...
    423 SOLID brushes
      5 SKY brushes
    428 brushes total
    2,689 visible sides
INFO: calculating BSP for 428 brushes with 2689 sides
      428 brushes
    2,683 visible faces
        6 non-visible faces
    24,170 nodes
         4 non-visible nodes
    13,778 expensive split nodes
    10,392 mid-split nodes
    24,171 leaves
     9,831 EMPTY leafs
     1,874 SKY leafs
    12,466 SOLID leafs
    24,171 leafs total
    33 max tree height
    20 avg tree height
    65 tiny portals
    91,524 tree portals
WARNING: Reached occupant "info_player_deathmatch" at (-1341.68 392.738 512.471), no filling performed.
Leak file written to cathedral-.pts
           16 portals written to cathedral-.leak.prt
    65 tiny portals
    91,524 tree portals
    23,812 sides visible
    23,812 makefaces
     3,678 merged
    10,544 subdivided
    4,339 nodes pruned
     9,831 EMPTY leafs
     1,874 SKY leafs
     8,127 SOLID leafs
    19,832 leafs total
    33 max tree height
    20 avg tree height
    14,002 edges added by tjunctions
    30,301 faces optimized through MWT
    74,430 triangles computed from MWT
     2,746 faces created via optimization of MWT triangles
    70,859 edges
    33,415 faces
Processing hull 1...
WARNING: Reached occupant "info_player_start" at (-235.533 814.355 825.882), no filling performed.
Processing hull 2...
WARNING: Reached occupant "info_player_start" at (-235.533 814.355 825.882), no filling performed.
LIMITS EXCEEDED ON dclipnode_t::children
NOTE: limits exceeded for Quake BSP - switching to Quake BSP2
Writing cathedral-.bsp as Quake BSP2 bsp2
Wrote cathedral-.bsp

count   lump name    byte size 
      9 models              576
   2180 planes            43600
  37242 vertexes         446904
  19879 nodes            874676
    177 texinfos           7080
  33477 faces            937356
  84565 clipnodes       1014780
  11762 leafs            517528
  35817 marksurfaces     143268
  70986 edges            567888
 141880 surfedges        567520
     28 textures         414636
        lightdata             0
        visdata               0
        entdata            4805

1.030s seconds elapsed


