---- qbsp / ericw-tools 2.0.0-alpha8-29-gb2f23f76 ----

--- Options Summary ---
    "nocolor" was set to "1" (from command line)

Input file: C:\Users\Fussy\OneDrive\Desktop\quake-leveldesign-starterkit-20240930-windows\cathedral-\cathedral-.map
Output file: C:\Users\Fussy\OneDrive\Desktop\quake-leveldesign-starterkit-20240930-windows\cathedral-\cathedral-.bsp

INFO: using built-in palette.
WARNING: cathedral-.map[line 6]: Unrecognised string escape - \e
WARNING: cathedral-.map[line 6]: Unrecognised string escape - \q
WARNING: cathedral-.map[line 6]: Unrecognised string escape - \p
WARNING: cathedral-.map[line 6]: Unrecognised string escape - \p
       94 entities
       29 unique textures
      204 texinfos
    1,924 unique planes

INFO: world extents calculated to 8360 units
      543 brushes
    3,377 sides
      121 side bevels

            0 texture frames added
WARNING: unable to find texture __TB_empty
Processing hull 0...
    529 SOLID brushes
      6 SKY brushes
    535 brushes total
    3,329 visible sides
INFO: calculating BSP for 535 brushes with 3329 sides
      535 brushes
    3,323 visible faces
        6 non-visible faces
    22,128 nodes
         8 non-visible nodes
    16,562 expensive split nodes
     5,566 mid-split nodes
    22,129 leaves
     9,364 EMPTY leafs
     1,788 SKY leafs
    10,977 SOLID leafs
    22,129 leafs total
    40 max tree height
    20 avg tree height
    738 tiny portals
    87,662 tree portals
    1,831 outside leaves
    0 detail filled leafs
      535 brushes
    2,457 visible faces
      872 non-visible faces
    7,105 nodes
      927 non-visible nodes
    7,105 expensive split nodes
    7,106 leaves
    2,412 EMPTY leafs
      143 SKY leafs
    4,551 SOLID leafs
    7,106 leafs total
    47 max tree height
    31 avg tree height
    217 tiny portals
    31,891 tree portals
    147 outside leaves
    0 detail filled leafs
    217 tiny portals
    31,891 tree portals
WARNING: 1 sides not found (use -verbose to display)
    8,722 sides visible
    8,722 makefaces
    2,406 merged
    7,277 subdivided
    2,156 nodes pruned
    40 tiny portals
    2,408 player-occupiable leaves
    2,408 clusters of leaves
    8,069 vis portals
    2,542 SOLID leafs
      143 SKY leafs
    2,265 EMPTY leafs
    4,950 leafs total
    46 max tree height
    30 avg tree height
    10,073 edges added by tjunctions
    13,356 faces optimized through MWT
    36,745 triangles computed from MWT
     2,505 faces created via optimization of MWT triangles
    34,626 edges
    16,089 faces
Processing hull 1...
Processing hull 2...
Writing cathedral-.bsp as Quake BSP bsp29
Wrote cathedral-.bsp

count   lump name    byte size 
      9 models              576
   2695 planes            53900
  18364 vertexes         220368
   4997 nodes            119928
    189 texinfos           7560
  16145 faces            322900
  12169 clipnodes         97352
   2465 leafs             69020
  17602 marksurfaces      35204
  34739 edges            138956
  69375 surfedges        277500
     29 textures         436440
        lightdata             0
        visdata               0
        entdata            6728

1.847s seconds elapsed


