---- qbsp / ericw-tools 2.0.0-alpha8-29-gb2f23f76 ----

--- Options Summary ---
    "nocolor" was set to "1" (from command line)

Input file: C:\Users\Fussy\OneDrive\Desktop\quake-leveldesign-starterkit-20240930-windows\cathedral-\cathedral-.map
Output file: C:\Users\Fussy\OneDrive\Desktop\quake-leveldesign-starterkit-20240930-windows\cathedral-\cathedral-.bsp

INFO: using built-in palette.
WARNING: cathedral-.map[line 6]: Unrecognised string escape - \.
WARNING: cathedral-.map[line 6]: Unrecognised string escape - \q
WARNING: cathedral-.map[line 6]: Unrecognised string escape - \w
WARNING: cathedral-.map[line 6]: Unrecognised string escape - \p
       66 entities
       18 unique textures
      112 texinfos
    1,350 unique planes

INFO: world extents calculated to 10472 units
      356 brushes
    2,260 sides
       84 side bevels

            0 texture frames added
WARNING: unable to find texture __TB_empty
Processing hull 0...
    348 SOLID brushes
    348 brushes total
    2,212 visible sides
INFO: calculating BSP for 348 brushes with 2212 sides
      348 brushes
    2,188 visible faces
       24 non-visible faces
    13,839 nodes
        69 non-visible nodes
     9,895 expensive split nodes
     3,944 mid-split nodes
    13,840 leaves
     6,339 EMPTY leafs
     7,501 SOLID leafs
    13,840 leafs total
    28 max tree height
    18 avg tree height
    72 tiny portals
    54,065 tree portals
WARNING: Reached occupant "info_player_deathmatch" at (-1341.68 392.738 512.471), no filling performed.
Leak file written to cathedral-.pts
            8 portals written to cathedral-.leak.prt
    72 tiny portals
    54,065 tree portals
    15,419 sides visible
    15,419 makefaces
     2,490 merged
     7,408 subdivided
    1,558 nodes pruned
     6,339 EMPTY leafs
     5,943 SOLID leafs
    12,282 leafs total
    26 max tree height
    17 avg tree height
    10,370 edges added by tjunctions
    20,002 faces optimized through MWT
    50,147 triangles computed from MWT
     2,250 faces created via optimization of MWT triangles
    48,602 edges
    22,537 faces
Processing hull 1...
WARNING: Reached occupant "info_teleport_destination" at (4235.91 764.919 453.686), no filling performed.
Processing hull 2...
WARNING: Reached occupant "info_teleport_destination" at (4235.91 764.919 453.686), no filling performed.
LIMITS EXCEEDED ON dclipnode_t::children
NOTE: limits exceeded for Quake BSP - switching to Quake BSP2
Writing cathedral-.bsp as Quake BSP2 bsp2
Wrote cathedral-.bsp

count   lump name    byte size 
      9 models              576
   1921 planes            38420
  24356 vertexes         292272
  12329 nodes            542476
    100 texinfos           4000
  22599 faces            632772
  73091 clipnodes        877092
   6396 leafs            281424
  25687 marksurfaces     102748
  48729 edges            389832
  95758 surfedges        383032
     18 textures         272756
        lightdata             0
        visdata               0
        entdata            4915

0.768s seconds elapsed


