---- qbsp / ericw-tools 2.0.0-alpha8-29-gb2f23f76 ----

--- Options Summary ---
    "nocolor" was set to "1" (from command line)

Input file: C:\Users\Fussy\OneDrive\Desktop\quake-leveldesign-starterkit-20240930-windows\cathedral-\cathedral-.map
Output file: C:\Users\Fussy\OneDrive\Desktop\quake-leveldesign-starterkit-20240930-windows\cathedral-\cathedral-.bsp

INFO: using built-in palette.
WARNING: cathedral-.map[line 6]: Unrecognised string escape - \e
WARNING: cathedral-.map[line 6]: Unrecognised string escape - \q
WARNING: cathedral-.map[line 6]: Unrecognised string escape - \p
WARNING: cathedral-.map[line 6]: Unrecognised string escape - \p
       65 entities
       28 unique textures
      197 texinfos
    1,650 unique planes

INFO: world extents calculated to 18120 units
      436 brushes
    2,737 sides
      115 side bevels

            0 texture frames added
WARNING: unable to find texture __TB_empty
Processing hull 0...
    423 SOLID brushes
      5 SKY brushes
    428 brushes total
    2,689 visible sides
INFO: calculating BSP for 428 brushes with 2689 sides
      428 brushes
    2,683 visible faces
        6 non-visible faces
    24,025 nodes
         4 non-visible nodes
    13,606 expensive split nodes
    10,419 mid-split nodes
    24,026 leaves
     9,837 EMPTY leafs
     1,887 SKY leafs
    12,302 SOLID leafs
    24,026 leafs total
    33 max tree height
    20 avg tree height
    65 tiny portals
    90,998 tree portals
WARNING: Reached occupant "info_player_deathmatch" at (-1341.68 392.738 512.471), no filling performed.
Leak file written to cathedral-.pts
           16 portals written to cathedral-.leak.prt
    65 tiny portals
    90,998 tree portals
    23,814 sides visible
    23,814 makefaces
     3,647 merged
    10,547 subdivided
    4,219 nodes pruned
     9,837 EMPTY leafs
     1,887 SKY leafs
     8,083 SOLID leafs
    19,807 leafs total
    33 max tree height
    20 avg tree height
    13,988 edges added by tjunctions
    30,337 faces optimized through MWT
    74,488 triangles computed from MWT
     2,753 faces created via optimization of MWT triangles
    70,931 edges
    33,458 faces
Processing hull 1...
WARNING: Reached occupant "info_player_start" at (-235.533 814.355 825.882), no filling performed.
Processing hull 2...
WARNING: Reached occupant "info_player_start" at (-235.533 814.355 825.882), no filling performed.
LIMITS EXCEEDED ON dclipnode_t::children
NOTE: limits exceeded for Quake BSP - switching to Quake BSP2
Writing cathedral-.bsp as Quake BSP2 bsp2
Wrote cathedral-.bsp

count   lump name    byte size 
      9 models              576
   2180 planes            43600
  37269 vertexes         447228
  19854 nodes            873576
    178 texinfos           7120
  33520 faces            938560
  84686 clipnodes       1016232
  11781 leafs            518364
  35840 marksurfaces     143360
  71058 edges            568464
 142024 surfedges        568096
     28 textures         414636
        lightdata             0
        visdata               0
        entdata            4805

1.128s seconds elapsed


