---- qbsp / ericw-tools 2.0.0-alpha8-29-gb2f23f76 ----

--- Options Summary ---
    "nocolor" was set to "1" (from command line)

Input file: C:\Users\Fussy\OneDrive\Desktop\quake-leveldesign-starterkit-20240930-windows\cathedral-\cathedral-.map
Output file: C:\Users\Fussy\OneDrive\Desktop\quake-leveldesign-starterkit-20240930-windows\cathedral-\cathedral-.bsp

INFO: using built-in palette.
WARNING: cathedral-.map[line 6]: Unrecognised string escape - \e
WARNING: cathedral-.map[line 6]: Unrecognised string escape - \q
WARNING: cathedral-.map[line 6]: Unrecognised string escape - \p
WARNING: cathedral-.map[line 6]: Unrecognised string escape - \p
WARNING: cathedral-.map[line 6]: Unrecognised string escape - \e
WARNING: cathedral-.map[line 6]: Unrecognised string escape - \q
WARNING: cathedral-.map[line 6]: Unrecognised string escape - \q
WARNING: cathedral-.map[line 6]: Unrecognised string escape - \a
WARNING: cathedral-.map[line 6]: Unrecognised string escape - \e
WARNING: cathedral-.map[line 6]: Unrecognised string escape - \q
WARNING: cathedral-.map[line 6]: Unrecognised string escape - \q
WARNING: cathedral-.map[line 6]: Unrecognised string escape - \a
WARNING: cathedral-.map[line 6]: Unrecognised string escape - \e
WARNING: cathedral-.map[line 6]: Unrecognised string escape - \q
WARNING: cathedral-.map[line 6]: Unrecognised string escape - \q
WARNING: cathedral-.map[line 6]: Unrecognised string escape - \a
WARNING: cathedral-.map[line 6]: Unrecognised string escape - \e
WARNING: cathedral-.map[line 6]: Unrecognised string escape - \q
WARNING: cathedral-.map[line 6]: Unrecognised string escape - \q
WARNING: cathedral-.map[line 6]: Unrecognised string escape - \R
WARNING: cathedral-.map[line 6]: Unrecognised string escape - \e
WARNING: cathedral-.map[line 6]: Unrecognised string escape - \q
WARNING: cathedral-.map[line 6]: Unrecognised string escape - \q
WARNING: cathedral-.map[line 6]: Unrecognised string escape - \k
WARNING: cathedral-.map[line 6]: Unrecognised string escape - \e
WARNING: cathedral-.map[line 6]: Unrecognised string escape - \q
WARNING: cathedral-.map[line 6]: Unrecognised string escape - \q
WARNING: cathedral-.map[line 6]: Unrecognised string escape - \h
      190 entities
       45 unique textures
      298 texinfos
    2,230 unique planes

INFO: world extents calculated to 8488 units
      652 brushes
    4,079 sides
      145 side bevels

            0 texture frames added
Processing hull 0...
    628 SOLID brushes
      6 WATER | Q2_UNUSED_8 brushes
      6 SKY brushes
    640 brushes total
    4,007 visible sides
INFO: calculating BSP for 640 brushes with 4007 sides
      640 brushes
    4,007 visible faces
    26,892 nodes
    19,011 expensive split nodes
     7,881 mid-split nodes
    26,893 leaves
        21 WATER | Q2_UNUSED_8 leafs
    12,011 EMPTY leafs
     1,755 SKY leafs
    13,106 SOLID leafs
    26,893 leafs total
    38 max tree height
    20 avg tree height
    596 tiny portals
    106,404 tree portals
    1,791 outside leaves
    0 detail filled leafs
      640 brushes
    2,868 visible faces
    1,139 non-visible faces
    8,417 nodes
    1,347 non-visible nodes
    8,417 expensive split nodes
    8,418 leaves
        6 WATER | Q2_UNUSED_8 leafs
    2,846 EMPTY leafs
    5,283 SOLID leafs
      283 SKY leafs
    8,418 leafs total
    44 max tree height
    23 avg tree height
    341 tiny portals
    37,322 tree portals
    307 outside leaves
    0 detail filled leafs
    341 tiny portals
    37,322 tree portals
    10,032 sides visible
    10,021 makefaces
     2,717 merged
     7,598 subdivided
    2,566 nodes pruned
    51 tiny portals
    2,828 player-occupiable leaves
    2,800 clusters of leaves
    9,001 vis portals
    3,024 SOLID leafs
      283 SKY leafs
        6 WATER | Q2_UNUSED_8 leafs
    2,539 EMPTY leafs
    5,852 leafs total
    43 max tree height
    22 avg tree height
    10,705 edges added by tjunctions
    14,609 faces optimized through MWT
    39,897 triangles computed from MWT
     2,658 faces created via optimization of MWT triangles
    37,750 edges
    17,560 faces
Processing hull 1...
Processing hull 2...
WARNING: worldspawn at 0 0 0 has long value for key wad (length 394 >= 127)
Writing cathedral-.bsp as Quake BSP bsp29
Wrote cathedral-.bsp

count   lump name    byte size 
     13 models              832
   2994 planes            59880
  19960 vertexes         239520
   5923 nodes            142152
    257 texinfos          10280
  17640 faces            352800
  14049 clipnodes        112392
   2913 leafs             81564
  19268 marksurfaces      38536
  37911 edges            151644
  75630 surfedges        302520
     45 textures         458912
        lightdata             0
        visdata               0
        entdata           14004

1.781s seconds elapsed


