---- qbsp / ericw-tools 2.0.0-alpha8-29-gb2f23f76 ----

--- Options Summary ---
    "nocolor" was set to "1" (from command line)

Input file: C:\Users\Fussy\OneDrive\Desktop\quake-leveldesign-starterkit-20240930-windows\cathedral-\cathedral-.map
Output file: C:\Users\Fussy\OneDrive\Desktop\quake-leveldesign-starterkit-20240930-windows\cathedral-\cathedral-.bsp

INFO: using built-in palette.
WARNING: cathedral-.map[line 6]: Unrecognised string escape - \e
WARNING: cathedral-.map[line 6]: Unrecognised string escape - \q
WARNING: cathedral-.map[line 6]: Unrecognised string escape - \p
WARNING: cathedral-.map[line 6]: Unrecognised string escape - \p
WARNING: cathedral-.map[line 6]: Unrecognised string escape - \e
WARNING: cathedral-.map[line 6]: Unrecognised string escape - \q
WARNING: cathedral-.map[line 6]: Unrecognised string escape - \q
WARNING: cathedral-.map[line 6]: Unrecognised string escape - \a
WARNING: cathedral-.map[line 6]: Unrecognised string escape - \e
WARNING: cathedral-.map[line 6]: Unrecognised string escape - \q
WARNING: cathedral-.map[line 6]: Unrecognised string escape - \q
WARNING: cathedral-.map[line 6]: Unrecognised string escape - \a
WARNING: cathedral-.map[line 6]: Unrecognised string escape - \e
WARNING: cathedral-.map[line 6]: Unrecognised string escape - \q
WARNING: cathedral-.map[line 6]: Unrecognised string escape - \q
WARNING: cathedral-.map[line 6]: Unrecognised string escape - \a
WARNING: cathedral-.map[line 6]: Unrecognised string escape - \e
WARNING: cathedral-.map[line 6]: Unrecognised string escape - \q
WARNING: cathedral-.map[line 6]: Unrecognised string escape - \q
WARNING: cathedral-.map[line 6]: Unrecognised string escape - \R
WARNING: cathedral-.map[line 6]: Unrecognised string escape - \e
WARNING: cathedral-.map[line 6]: Unrecognised string escape - \q
WARNING: cathedral-.map[line 6]: Unrecognised string escape - \q
WARNING: cathedral-.map[line 6]: Unrecognised string escape - \k
WARNING: cathedral-.map[line 6]: Unrecognised string escape - \e
WARNING: cathedral-.map[line 6]: Unrecognised string escape - \q
WARNING: cathedral-.map[line 6]: Unrecognised string escape - \q
WARNING: cathedral-.map[line 6]: Unrecognised string escape - \h
      185 entities
       45 unique textures
      298 texinfos
    2,234 unique planes

INFO: world extents calculated to 8488 units
      653 brushes
    4,085 sides
      145 side bevels

            0 texture frames added
Processing hull 0...
    629 SOLID brushes
      6 WATER | Q2_UNUSED_8 brushes
      6 SKY brushes
    641 brushes total
    4,013 visible sides
INFO: calculating BSP for 641 brushes with 4013 sides
      641 brushes
    4,013 visible faces
    26,943 nodes
    19,040 expensive split nodes
     7,903 mid-split nodes
    26,944 leaves
        21 WATER | Q2_UNUSED_8 leafs
    12,033 EMPTY leafs
     1,757 SKY leafs
    13,133 SOLID leafs
    26,944 leafs total
    38 max tree height
    20 avg tree height
    596 tiny portals
    106,607 tree portals
    1,793 outside leaves
    0 detail filled leafs
      641 brushes
    2,873 visible faces
    1,140 non-visible faces
    8,428 nodes
    1,348 non-visible nodes
    8,428 expensive split nodes
    8,429 leaves
        6 WATER | Q2_UNUSED_8 leafs
    2,851 EMPTY leafs
    5,289 SOLID leafs
      283 SKY leafs
    8,429 leafs total
    44 max tree height
    23 avg tree height
    341 tiny portals
    37,374 tree portals
    307 outside leaves
    0 detail filled leafs
    341 tiny portals
    37,374 tree portals
    10,043 sides visible
    10,032 makefaces
     2,720 merged
     7,598 subdivided
    2,566 nodes pruned
    51 tiny portals
    2,833 player-occupiable leaves
    2,805 clusters of leaves
    9,024 vis portals
    3,030 SOLID leafs
      283 SKY leafs
        6 WATER | Q2_UNUSED_8 leafs
    2,544 EMPTY leafs
    5,863 leafs total
    43 max tree height
    22 avg tree height
    10,713 edges added by tjunctions
    14,617 faces optimized through MWT
    39,921 triangles computed from MWT
     2,657 faces created via optimization of MWT triangles
    37,769 edges
    17,567 faces
Processing hull 1...
Processing hull 2...
WARNING: worldspawn at 0 0 0 has long value for key wad (length 394 >= 127)
Writing cathedral-.bsp as Quake BSP bsp29
Wrote cathedral-.bsp

count   lump name    byte size 
     13 models              832
   2999 planes            59980
  19972 vertexes         239664
   5934 nodes            142416
    257 texinfos          10280
  17647 faces            352940
  14075 clipnodes        112600
   2918 leafs             81704
  19278 marksurfaces      38556
  37930 edges            151720
  75668 surfedges        302672
     45 textures         458912
        lightdata             0
        visdata               0
        entdata           13724

1.727s seconds elapsed


