---- qbsp / ericw-tools 2.0.0-alpha8-29-gb2f23f76 ----

--- Options Summary ---
    "nocolor" was set to "1" (from command line)

Input file: C:\Users\Fussy\OneDrive\Desktop\quake-leveldesign-starterkit-20240930-windows\cathedral-\cathedral-.map
Output file: C:\Users\Fussy\OneDrive\Desktop\quake-leveldesign-starterkit-20240930-windows\cathedral-\cathedral-.bsp

INFO: using built-in palette.
WARNING: cathedral-.map[line 6]: Unrecognised string escape - \e
WARNING: cathedral-.map[line 6]: Unrecognised string escape - \q
WARNING: cathedral-.map[line 6]: Unrecognised string escape - \p
WARNING: cathedral-.map[line 6]: Unrecognised string escape - \p
WARNING: cathedral-.map[line 6]: Unrecognised string escape - \e
WARNING: cathedral-.map[line 6]: Unrecognised string escape - \q
WARNING: cathedral-.map[line 6]: Unrecognised string escape - \k
WARNING: cathedral-.map[line 6]: Unrecognised string escape - \e
WARNING: cathedral-.map[line 6]: Unrecognised string escape - \q
WARNING: cathedral-.map[line 6]: Unrecognised string escape - \k
WARNING: cathedral-.map[line 6]: Unrecognised string escape - \e
WARNING: cathedral-.map[line 6]: Unrecognised string escape - \q
WARNING: cathedral-.map[line 6]: Unrecognised string escape - \e
WARNING: cathedral-.map[line 6]: Unrecognised string escape - \q
WARNING: cathedral-.map[line 6]: Unrecognised string escape - \a
WARNING: cathedral-.map[line 6]: Unrecognised string escape - \e
WARNING: cathedral-.map[line 6]: Unrecognised string escape - \q
WARNING: cathedral-.map[line 6]: Unrecognised string escape - \a
WARNING: cathedral-.map[line 6]: Unrecognised string escape - \e
WARNING: cathedral-.map[line 6]: Unrecognised string escape - \q
WARNING: cathedral-.map[line 6]: Unrecognised string escape - \R
WARNING: cathedral-.map[line 6]: Unrecognised string escape - \e
WARNING: cathedral-.map[line 6]: Unrecognised string escape - \q
WARNING: cathedral-.map[line 6]: Unrecognised string escape - \h
      154 entities
       35 unique textures
      238 texinfos
    2,220 unique planes

INFO: world extents calculated to 8360 units
      622 brushes
    3,899 sides
      145 side bevels

            0 texture frames added
Processing hull 0...
    598 SOLID brushes
      6 WATER | Q2_UNUSED_8 brushes
      6 SKY brushes
    610 brushes total
    3,827 visible sides
INFO: calculating BSP for 610 brushes with 3827 sides
      610 brushes
    3,827 visible faces
    25,051 nodes
    18,442 expensive split nodes
     6,609 mid-split nodes
    25,052 leaves
        21 WATER | Q2_UNUSED_8 leafs
    10,389 EMPTY leafs
     1,965 SKY leafs
    12,677 SOLID leafs
    25,052 leafs total
    38 max tree height
    20 avg tree height
    694 tiny portals
    98,557 tree portals
    2,010 outside leaves
    0 detail filled leafs
      610 brushes
    2,830 visible faces
      997 non-visible faces
    8,211 nodes
    1,154 non-visible nodes
    8,211 expensive split nodes
    8,212 leaves
        6 WATER | Q2_UNUSED_8 leafs
    2,756 EMPTY leafs
      250 SKY leafs
    5,200 SOLID leafs
    8,212 leafs total
    46 max tree height
    24 avg tree height
    338 tiny portals
    36,563 tree portals
    255 outside leaves
    0 detail filled leafs
    338 tiny portals
    36,563 tree portals
    9,841 sides visible
    9,832 makefaces
    2,640 merged
    7,277 subdivided
    2,501 nodes pruned
    66 tiny portals
    2,757 player-occupiable leaves
    2,729 clusters of leaves
    8,845 vis portals
    2,954 SOLID leafs
      250 SKY leafs
        6 WATER | Q2_UNUSED_8 leafs
    2,501 EMPTY leafs
    5,711 leafs total
    46 max tree height
    23 avg tree height
         2 edges degenerated
    10,515 edges added by tjunctions
    14,188 faces optimized through MWT
    38,853 triangles computed from MWT
     2,633 faces created via optimization of MWT triangles
    36,750 edges
    17,102 faces
Processing hull 1...
Processing hull 2...
WARNING: worldspawn at 0 0 0 has long value for key wad (length 444 >= 127)
Writing cathedral-.bsp as Quake BSP bsp29
Wrote cathedral-.bsp

count   lump name    byte size 
     13 models              832
   3009 planes            60180
  19452 vertexes         233424
   5782 nodes            138768
    216 texinfos           8640
  17182 faces            343640
  14081 clipnodes        112648
   2842 leafs             79576
  18711 marksurfaces      37422
  36911 edges            147644
  73659 surfedges        294636
     35 textures         360584
        lightdata             0
        visdata               0
        entdata           11310

1.775s seconds elapsed


