---- qbsp / ericw-tools 2.0.0-alpha8-29-gb2f23f76 ----

--- Options Summary ---
    "nocolor" was set to "1" (from command line)

Input file: C:\Users\Fussy\OneDrive\Desktop\quake-leveldesign-starterkit-20240930-windows\cathedral-\cathedral-.map
Output file: C:\Users\Fussy\OneDrive\Desktop\quake-leveldesign-starterkit-20240930-windows\cathedral-\cathedral-.bsp

INFO: using built-in palette.
WARNING: cathedral-.map[line 6]: Unrecognised string escape - \e
WARNING: cathedral-.map[line 6]: Unrecognised string escape - \q
WARNING: cathedral-.map[line 6]: Unrecognised string escape - \p
WARNING: cathedral-.map[line 6]: Unrecognised string escape - \p
WARNING: cathedral-.map[line 6]: Unrecognised string escape - \e
WARNING: cathedral-.map[line 6]: Unrecognised string escape - \q
WARNING: cathedral-.map[line 6]: Unrecognised string escape - \k
WARNING: cathedral-.map[line 6]: Unrecognised string escape - \e
WARNING: cathedral-.map[line 6]: Unrecognised string escape - \q
WARNING: cathedral-.map[line 6]: Unrecognised string escape - \k
WARNING: cathedral-.map[line 6]: Unrecognised string escape - \e
WARNING: cathedral-.map[line 6]: Unrecognised string escape - \q
WARNING: cathedral-.map[line 6]: Unrecognised string escape - \e
WARNING: cathedral-.map[line 6]: Unrecognised string escape - \q
WARNING: cathedral-.map[line 6]: Unrecognised string escape - \a
WARNING: cathedral-.map[line 6]: Unrecognised string escape - \e
WARNING: cathedral-.map[line 6]: Unrecognised string escape - \q
WARNING: cathedral-.map[line 6]: Unrecognised string escape - \a
WARNING: cathedral-.map[line 6]: Unrecognised string escape - \e
WARNING: cathedral-.map[line 6]: Unrecognised string escape - \q
WARNING: cathedral-.map[line 6]: Unrecognised string escape - \R
WARNING: cathedral-.map[line 6]: Unrecognised string escape - \e
WARNING: cathedral-.map[line 6]: Unrecognised string escape - \q
WARNING: cathedral-.map[line 6]: Unrecognised string escape - \h
      145 entities
       33 unique textures
      226 texinfos
    2,030 unique planes

INFO: world extents calculated to 8360 units
      605 brushes
    3,749 sides
      121 side bevels

            0 texture frames added
Processing hull 0...
    589 SOLID brushes
      2 WATER | Q2_UNUSED_8 brushes
      6 SKY brushes
    597 brushes total
    3,701 visible sides
INFO: calculating BSP for 597 brushes with 3701 sides
      597 brushes
    3,701 visible faces
    23,841 nodes
    17,820 expensive split nodes
     6,021 mid-split nodes
    23,842 leaves
         7 WATER | Q2_UNUSED_8 leafs
    10,117 EMPTY leafs
     1,940 SKY leafs
    11,778 SOLID leafs
    23,842 leafs total
    40 max tree height
    20 avg tree height
    581 tiny portals
    94,810 tree portals
    1,982 outside leaves
    0 detail filled leafs
      597 brushes
    2,735 visible faces
      966 non-visible faces
    7,466 nodes
      967 non-visible nodes
    7,466 expensive split nodes
    7,467 leaves
        2 WATER | Q2_UNUSED_8 leafs
    2,565 EMPTY leafs
      156 SKY leafs
    4,744 SOLID leafs
    7,467 leafs total
    50 max tree height
    29 avg tree height
    325 tiny portals
    33,416 tree portals
    161 outside leaves
    0 detail filled leafs
    325 tiny portals
    33,416 tree portals
    9,298 sides visible
    9,295 makefaces
    2,485 merged
    6,731 subdivided
    2,212 nodes pruned
    73 tiny portals
    2,562 player-occupiable leaves
    2,552 clusters of leaves
    8,501 vis portals
    2,693 SOLID leafs
      156 SKY leafs
        2 WATER | Q2_UNUSED_8 leafs
    2,404 EMPTY leafs
    5,255 leafs total
    50 max tree height
    27 avg tree height
    10,122 edges added by tjunctions
    13,303 faces optimized through MWT
    36,692 triangles computed from MWT
     2,606 faces created via optimization of MWT triangles
    34,692 edges
    16,147 faces
Processing hull 1...
Processing hull 2...
WARNING: worldspawn at 0 0 0 has long value for key wad (length 444 >= 127)
Writing cathedral-.bsp as Quake BSP bsp29
Wrote cathedral-.bsp

count   lump name    byte size 
      9 models              576
   2766 planes            55320
  18335 vertexes         220020
   5302 nodes            127248
    205 texinfos           8200
  16203 faces            324060
  13206 clipnodes        105648
   2619 leafs             73332
  17487 marksurfaces      34974
  34805 edges            139220
  69448 surfedges        277792
     33 textures         338736
        lightdata             0
        visdata               0
        entdata           10580

1.736s seconds elapsed


